# generated using pymatgen
data_SiC
_symmetry_space_group_name_H-M   'P 1'
_cell_length_a   3.09488410
_cell_length_b   3.09488410
_cell_length_c   15.18453125
_cell_angle_alpha   90.00000000
_cell_angle_beta   90.00000000
_cell_angle_gamma   120.00000000
_symmetry_Int_Tables_number   1
_chemical_formula_structural   SiC
_chemical_formula_sum   'Si6 C6'
_cell_volume   125.956562704
_cell_formula_units_Z   6
loop_
 _symmetry_equiv_pos_site_id
 _symmetry_equiv_pos_as_xyz
  1  'x, y, z'
loop_
 _atom_site_type_symbol
 _atom_site_label
 _atom_site_symmetry_multiplicity
 _atom_site_fract_x
 _atom_site_fract_y
 _atom_site_fract_z
 _atom_site_occupancy
  Si  Si1  1  0.333333  0.666667  0.167014  1
  Si  Si2  1  0.666667  0.333333  0.667014  1
  Si  Si3  1  0.666667  0.333333  0.333491  1
  Si  Si4  1  0.333333  0.666667  0.833491  1
  Si  Si5  1  0.000000  0.000000  0.500277  1
  Si  Si6  1  0.000000  0.000000  0.000277  1
  C  C7  1  0.000000  0.000000  0.125648  1
  C  C8  1  0.000000  0.000000  0.625648  1
  C  C9  1  0.333333  0.666667  0.291996  1
  C  C10  1  0.666667  0.333333  0.791996  1
  C  C11  1  0.666667  0.333333  0.458474  1
  C  C12  1  0.333333  0.666667  0.958474  1
